/*--------------------------------*- C++ -*----------------------------------*\
| =========                 |                                                 |
| \\      /  F ield         | OpenFOAM: The Open Source CFD Toolbox           |
|  \\    /   O peration     | Version:  2.1.x                                 |
|   \\  /    A nd           | Web:      www.OpenFOAM.org                      |
|    \\/     M anipulation  |                                                 |
\*---------------------------------------------------------------------------*/
FoamFile
{
    version     2.0;
    format      ascii;
    class       volScalarField;
    location    "0";
    object      T;
}
// * * * * * * * * * * * * * * * * * * * * * * * * * * * * * * * * * * * * * //

dimensions      [0 0 0 1 0 0 0];

internalField   uniform 300.;

boundaryField
{
    top
    {
        type            inletOutlet;
        inletValue      uniform 300.;
    }

    bottom
    {
        type            uniformFixedValue;
        uniformValue    table
        (
            (0.0  1000.)
            (1.5  1000.)
            (2.0   300.)
        );
    }

    sides
    {
        type            inletOutlet;
        inletValue      uniform 300.;
    }

    frontAndBack
    {
        type            empty;
    }
}


// ************************************************************************* //
