/*--------------------------------*- C++ -*----------------------------------*\
| =========                 |                                                 |
| \\      /  F ield         | OpenFOAM: The Open Source CFD Toolbox           |
|  \\    /   O peration     | Version:  2.1.x                                 |
|   \\  /    A nd           | Web:      www.OpenFOAM.org                      |
|    \\/     M anipulation  |                                                 |
\*---------------------------------------------------------------------------*/
FoamFile
{
    version     2.0;
    format      ascii;
    class       dictionary;
    object      solidThermophysicalProperties;
}
// * * * * * * * * * * * * * * * * * * * * * * * * * * * * * * * * * * * * * //

thermoType constSolidThermo;

constSolidThermoCoeffs
{
    //- thermo properties
    rho rho [1 -3  0  0 0 0 0] 1800.;
    Cp  Cp  [0  2 -2 -1 0 0 0] 1400.;
    K   K   [1  1 -3 -1 0 0 0] 0.2;

    //- radiation properties
    kappa kappa [0 -1 0 0 0 0 0]            0;
    sigmaS sigmaS [0 -1 0 0 0 0 0]          0;
    emissivity  emissivity  [0 0 0 0 0 0 0] 0;

    //- chemical properties
    Hf  Hf  [0  2 -2  0 0 0 0] 0;
}


// ************************************************************************* //
