/*--------------------------------*- C++ -*----------------------------------*\
| =========                 |                                                 |
| \\      /  F ield         | OpenFOAM: The Open Source CFD Toolbox           |
|  \\    /   O peration     | Version:  2.1.x                                 |
|   \\  /    A nd           | Web:      www.OpenFOAM.org                      |
|    \\/     M anipulation  |                                                 |
\*---------------------------------------------------------------------------*/
FoamFile
{
    version     2.0;
    format      ascii;
    class       volScalarField;
    location    "0";
    object      Ts;
}
// * * * * * * * * * * * * * * * * * * * * * * * * * * * * * * * * * * * * * //

dimensions      [0 0 0 1 0 0 0];

internalField   uniform 500.;

boundaryField
{
    top
    {
        type            fixedValue;
        value           uniform 500.;
    }

    bottom
    {
        type            fixedValue;
        value           uniform 500.;
    }

    sides
    {
        type            symmetry;
    }

    frontAndBack
    {
        type            symmetry;
    }
}


// ************************************************************************* //
