/*--------------------------------*- C++ -*----------------------------------*\
| =========                 |                                                 |
| \\      /  F ield         | OpenFOAM: The Open Source CFD Toolbox           |
|  \\    /   O peration     | Version:  2.1.x                                 |
|   \\  /    A nd           | Web:      www.OpenFOAM.org                      |
|    \\/     M anipulation  |                                                 |
\*---------------------------------------------------------------------------*/
FoamFile
{
    version     2.0;
    format      ascii;
    class       volScalarField;
    location    "0";
    object      EMp;
}
// * * * * * * * * * * * * * * * * * * * * * * * * * * * * * * * * * * * * * //

dimensions      [0 0 0 0 0 0 0];

internalField   uniform 0.9;

boundaryField
{
top
    {
        type            inletOutlet;
        inletValue      uniform 1.0;
    }

    sides
    {
        type            symmetryPlane;
    }

    frontAndBack
    {
        type            symmetryPlane;
    }

    bottom
    {
        type            zeroGradient;
    }
}


// ************************************************************************* //
