/*--------------------------------*- C++ -*----------------------------------*\
| =========                 |                                                 |
| \\      /  F ield         | OpenFOAM: The Open Source CFD Toolbox           |
|  \\    /   O peration     | Version:  2.1.x                                 |
|   \\  /    A nd           | Web:      www.OpenFOAM.org                      |
|    \\/     M anipulation  |                                                 |
\*---------------------------------------------------------------------------*/
FoamFile
{
    version     2.0;
    format      binary;
    class       polyBoundaryMesh;
    location    "constant/polyMesh";
    object      boundary;
}
// * * * * * * * * * * * * * * * * * * * * * * * * * * * * * * * * * * * * * //

4
(
    bottom
    {
        type            patch;
        nFaces          8;
        startFace       1192;
    }
    sides
    {
        type            symmetryPlane;
        nFaces          160;
        startFace       1200;
    }
    frontAndBack
    {
        type            symmetryPlane;
        nFaces          1280;
        startFace       1360;
    }
    top
    {
        type            patch;
        nFaces          8;
        startFace       2640;
    }
)

// ************************************************************************* //
