/*--------------------------------*- C++ -*----------------------------------*\
| =========                 |                                                 |
| \\      /  F ield         | OpenFOAM: The Open Source CFD Toolbox           |
|  \\    /   O peration     | Version:  2.1.x                                 |
|   \\  /    A nd           | Web:      www.OpenFOAM.org                      |
|    \\/     M anipulation  |                                                 |
\*---------------------------------------------------------------------------*/
FoamFile
{
    version     2.0;
    format      ascii;
    class       dictionary;
    location    "constant";
    object      combustionProperties;
}
// * * * * * * * * * * * * * * * * * * * * * * * * * * * * * * * * * * * * * //

combustionModel  PaSR<psiChemistryCombustion>;
//combustionModel  laminar<rhoChemistryCombustion>;

active  true;

infinitelyFastChemistryCoeffs
{
    C       10.0;
}

PaSRCoeffs
{
    Cmix                0.1;
    turbulentReaction   on;
}


// ************************************************************************* //
